Mass spectrum: GABA; LC-ESI-QQ; MS2; CE:10 V; [M-H]-
Name: GABA
Name: gamma-Aminobutyric acid
Name: 4-Aminobutanoate
Name: 4-Aminobutanoic acid
Name: 4-Aminobutylate
Name: 4-Aminobutyric acid
Name: 4-Aminobutyrate
Class: Natural Product
Formula: C4H9NO2
Exact mass: 103.06333
SMILES: NCCCC(O)=O
InChI: InChI=1S/C4H9NO2/c5-3-1-2-4(6)7/h1-3,5H2,(H,6,7)
Instrument: API3000, Applied Biosystems
Instrument type: LC-ESI-QQ
Ms type: MS2
Ion mode: NEGATIVE
Collision energy: 10 V
Precursor m/z: 102
Precursor type: [M-H]-
m/z	relative intensity
58.50000	1
73.20000	1
83.90000	16
101.30000	2
102.00000	999
